PV_Scenarios/PV_combined/scenario_62_combined/PV_combined20per.txt
New PVSystem.PV_1 phases=1 bus1=G2000XH4800_N283608_sec_5.2 kV=0.24 kVA=7.56 irradiance=1 Pmpp=6.3 %cutin=0.1 %cutout=0.1
New PVSystem.PV_2 phases=1 bus1=G2001QN1600_N274550_sec_1.2 kV=0.24 kVA=6.24 irradiance=1 Pmpp=5.2 %cutin=0.1 %cutout=0.1
New PVSystem.PV_3 phases=1 bus1=G2001RJ3400_N274458_sec_1.2 kV=0.24 kVA=2.5064 irradiance=1 Pmpp=2.0886 %cutin=0.1 %cutout=0.1
New PVSystem.PV_4 phases=1 bus1=G2001RJ3400_N274458_sec_2.2 kV=0.24 kVA=11.4 irradiance=1 Pmpp=9.5 %cutin=0.1 %cutout=0.1
New PVSystem.PV_5 phases=1 bus1=G2001SB8200_N274258_sec_2.3 kV=0.24 kVA=4.44 irradiance=1 Pmpp=3.7 %cutin=0.1 %cutout=0.1
New PVSystem.PV_6 phases=1 bus1=G2001SH3700_N274411_sec_3.1 kV=0.24 kVA=8.16 irradiance=1 Pmpp=6.8 %cutin=0.1 %cutout=0.1
New PVSystem.PV_7 phases=1 bus1=G2001SJ5400_N274470_sec_2.1 kV=0.24 kVA=3.84 irradiance=1 Pmpp=3.2 %cutin=0.1 %cutout=0.1
New PVSystem.PV_8 phases=1 bus1=G2001TD3700_N274305_sec_2.3 kV=0.24 kVA=5.28 irradiance=1 Pmpp=4.4 %cutin=0.1 %cutout=0.1
New PVSystem.PV_9 phases=1 bus1=G2001UB2100_N283965_sec_8.3 kV=0.24 kVA=4.2 irradiance=1 Pmpp=3.5 %cutin=0.1 %cutout=0.1
New PVSystem.PV_10 phases=1 bus1=G2001WC3900_N284043_sec_6.3 kV=0.24 kVA=4.08 irradiance=1 Pmpp=3.4 %cutin=0.1 %cutout=0.1
New PVSystem.PV_11 phases=1 bus1=G2002AF2300_N284383_sec_1.1 kV=0.24 kVA=12.6 irradiance=1 Pmpp=10.5 %cutin=0.1 %cutout=0.1
New PVSystem.PV_12 phases=1 bus1=G2100AH8200_N283618_sec_5.3 kV=0.24 kVA=2.52 irradiance=1 Pmpp=2.1 %cutin=0.1 %cutout=0.1
New PVSystem.PV_13 phases=1 bus1=G2100AK4600_N283751_sec_1.2 kV=0.24 kVA=5.1091 irradiance=1 Pmpp=4.2576 %cutin=0.1 %cutout=0.1
New PVSystem.PV_14 phases=1 bus1=G2100BE8900_N283564_sec_4.3 kV=0.24 kVA=3.24 irradiance=1 Pmpp=2.7 %cutin=0.1 %cutout=0.1
New PVSystem.PV_15 phases=1 bus1=G2100BH6100_N283623_sec_5.3 kV=0.24 kVA=3.24 irradiance=1 Pmpp=2.7 %cutin=0.1 %cutout=0.1
New PVSystem.PV_16 phases=1 bus1=G2100CN4900_N283858_sec_7.3 kV=0.24 kVA=2.16 irradiance=1 Pmpp=1.8 %cutin=0.1 %cutout=0.1
New PVSystem.PV_17 phases=1 bus1=G2100DG3700_N283614_sec_11.3 kV=0.24 kVA=1.2 irradiance=1 Pmpp=1 %cutin=0.1 %cutout=0.1
New PVSystem.PV_18 phases=1 bus1=G2100DH9500_N292300_sec_3.3 kV=0.24 kVA=3.96 irradiance=1 Pmpp=3.3 %cutin=0.1 %cutout=0.1
New PVSystem.PV_19 phases=1 bus1=G2100DH9500_N292300_sec_6.3 kV=0.24 kVA=7.68 irradiance=1 Pmpp=6.4 %cutin=0.1 %cutout=0.1
New PVSystem.PV_20 phases=1 bus1=G2100DL5900_N283794_sec_2.3 kV=0.24 kVA=5.88 irradiance=1 Pmpp=4.9 %cutin=0.1 %cutout=0.1
New PVSystem.PV_21 phases=1 bus1=G2100DN4800_N283861_sec_18.3 kV=0.24 kVA=2.52 irradiance=1 Pmpp=2.1 %cutin=0.1 %cutout=0.1
New PVSystem.PV_22 phases=1 bus1=G2100DN4800_N283861_sec_55.3 kV=0.24 kVA=1.92 irradiance=1 Pmpp=1.6 %cutin=0.1 %cutout=0.1
New PVSystem.PV_23 phases=1 bus1=G2100EK2800_N292334_sec_3.2 kV=0.24 kVA=5.76 irradiance=1 Pmpp=4.8 %cutin=0.1 %cutout=0.1
New PVSystem.PV_24 phases=1 bus1=G2100EN2200_N292457_sec_29.3 kV=0.24 kVA=3 irradiance=1 Pmpp=2.5 %cutin=0.1 %cutout=0.1
New PVSystem.PV_25 phases=1 bus1=G2100EN8600_N292479_sec_2.3 kV=0.24 kVA=2.04 irradiance=1 Pmpp=1.7 %cutin=0.1 %cutout=0.1
New PVSystem.PV_26 phases=1 bus1=G2100EO1300_N292510_sec_6.3 kV=0.24 kVA=3.96 irradiance=1 Pmpp=3.3 %cutin=0.1 %cutout=0.1
New PVSystem.PV_27 phases=1 bus1=G2100GM9700_N292423_sec_9.3 kV=0.24 kVA=2.64 irradiance=1 Pmpp=2.2 %cutin=0.1 %cutout=0.1
New PVSystem.PV_28 phases=1 bus1=G2100GM9700_N292423_sec_37.3 kV=0.24 kVA=7.8 irradiance=1 Pmpp=6.5 %cutin=0.1 %cutout=0.1
New PVSystem.PV_29 phases=1 bus1=G2100GN0400_N292471_sec_15.1 kV=0.24 kVA=0.48 irradiance=1 Pmpp=0.4 %cutin=0.1 %cutout=0.1
New PVSystem.PV_30 phases=1 bus1=G2100GN4300_N292461_sec_1.1 kV=0.24 kVA=9.84 irradiance=1 Pmpp=8.2 %cutin=0.1 %cutout=0.1
New PVSystem.PV_31 phases=3 conn = delta bus1=G2100HE0400_N292223_sec_1.1.2.3 kV=0.48 kVA=97.92 irradiance=1 Pmpp=81.6 %cutin=0.1 %cutout=0.1
New PVSystem.PV_32 phases=1 bus1=G2100HM9900_N292433_sec_27.3 kV=0.24 kVA=3.12 irradiance=1 Pmpp=2.6 %cutin=0.1 %cutout=0.1
New PVSystem.PV_33 phases=1 bus1=G2100HN5600_N292453_sec_36.3 kV=0.24 kVA=1.32 irradiance=1 Pmpp=1.1 %cutin=0.1 %cutout=0.1
New PVSystem.PV_34 phases=1 bus1=G2100HN5600_N292453_sec_38.3 kV=0.24 kVA=1.44 irradiance=1 Pmpp=1.2 %cutin=0.1 %cutout=0.1
New PVSystem.PV_35 phases=1 bus1=G2100IM6700_N292430_sec_1.3 kV=0.24 kVA=2.88 irradiance=1 Pmpp=2.4 %cutin=0.1 %cutout=0.1
New PVSystem.PV_36 phases=1 bus1=G2100IM6700_N292430_sec_29.3 kV=0.24 kVA=3 irradiance=1 Pmpp=2.5 %cutin=0.1 %cutout=0.1
New PVSystem.PV_37 phases=1 bus1=G2100IN2700_N292475_sec_26.3 kV=0.24 kVA=2.52 irradiance=1 Pmpp=2.1 %cutin=0.1 %cutout=0.1
New PVSystem.PV_38 phases=1 bus1=G2100IN7700_N292438_sec_3.3 kV=0.24 kVA=1.92 irradiance=1 Pmpp=1.6 %cutin=0.1 %cutout=0.1
New PVSystem.PV_39 phases=1 bus1=G2100KO9900_N300626_sec_1.1 kV=0.24 kVA=2.64 irradiance=1 Pmpp=2.2 %cutin=0.1 %cutout=0.1
New PVSystem.PV_40 phases=1 bus1=G2100NM4100_N300509_sec_8.1 kV=0.24 kVA=5.04 irradiance=1 Pmpp=4.2 %cutin=0.1 %cutout=0.1
New PVSystem.PV_41 phases=1 bus1=G2100NN4200_N300548_sec_3.3 kV=0.24 kVA=0.96 irradiance=1 Pmpp=0.8 %cutin=0.1 %cutout=0.1
New PVSystem.PV_42 phases=1 bus1=G2100ON6900_N300568_sec_7.1 kV=0.24 kVA=4.68 irradiance=1 Pmpp=3.9 %cutin=0.1 %cutout=0.1
New PVSystem.PV_43 phases=1 bus1=G2100ON7300_N300541_sec_1.1 kV=0.24 kVA=4.08 irradiance=1 Pmpp=3.4 %cutin=0.1 %cutout=0.1
New PVSystem.PV_44 phases=1 bus1=G2100PN6500_N300562_sec_3.1 kV=0.24 kVA=6.72 irradiance=1 Pmpp=5.6 %cutin=0.1 %cutout=0.1
New PVSystem.PV_45 phases=1 bus1=G2100QM2700_N300529_sec_1.2 kV=0.24 kVA=4.44 irradiance=1 Pmpp=3.7 %cutin=0.1 %cutout=0.1
New PVSystem.PV_46 phases=1 bus1=G2100RL8500_N312282_sec_5.2 kV=0.24 kVA=1.44 irradiance=1 Pmpp=1.2 %cutin=0.1 %cutout=0.1
New PVSystem.PV_47 phases=1 bus1=G2100RM5200_N312343_sec_2.3 kV=0.24 kVA=3.36 irradiance=1 Pmpp=2.8 %cutin=0.1 %cutout=0.1
New PVSystem.PV_48 phases=1 bus1=G2100SM8900_N312424_sec_6.2 kV=0.24 kVA=3.72 irradiance=1 Pmpp=3.1 %cutin=0.1 %cutout=0.1
New PVSystem.PV_49 phases=1 bus1=G2100SP2100_N312536_sec_2.2 kV=0.24 kVA=8.52 irradiance=1 Pmpp=7.1 %cutin=0.1 %cutout=0.1
New PVSystem.PV_50 phases=1 bus1=G2100TO1000_N312424_sec_10.2 kV=0.24 kVA=11.52 irradiance=1 Pmpp=9.6 %cutin=0.1 %cutout=0.1
New PVSystem.PV_51 phases=1 bus1=G2101AC1300_N283976_sec_3.2 kV=0.24 kVA=9.6033 irradiance=1 Pmpp=8.0028 %cutin=0.1 %cutout=0.1
New PVSystem.PV_52 phases=1 bus1=G2101AC9800_N283938_sec_5.3 kV=0.24 kVA=3.24 irradiance=1 Pmpp=2.7 %cutin=0.1 %cutout=0.1
New PVSystem.PV_53 phases=1 bus1=G2101AE2800_N284062_sec_1.3 kV=0.24 kVA=6 irradiance=1 Pmpp=5 %cutin=0.1 %cutout=0.1
New PVSystem.PV_54 phases=1 bus1=G2101CF1100_N284085_sec_1.2 kV=0.24 kVA=9 irradiance=1 Pmpp=7.5 %cutin=0.1 %cutout=0.1
New PVSystem.PV_55 phases=1 bus1=G2101CI7200_N284177_sec_2.3 kV=0.24 kVA=2.4 irradiance=1 Pmpp=2 %cutin=0.1 %cutout=0.1
New PVSystem.PV_56 phases=1 bus1=G2101DC0100_N283946_sec_3.1 kV=0.24 kVA=5.28 irradiance=1 Pmpp=4.4 %cutin=0.1 %cutout=0.1
New PVSystem.PV_57 phases=1 bus1=G2101EG5500_N292730_sec_1.2 kV=0.24 kVA=6.6 irradiance=1 Pmpp=5.5 %cutin=0.1 %cutout=0.1
New PVSystem.PV_58 phases=1 bus1=G2101EN6500_N292860_sec_2.2 kV=0.24 kVA=10.44 irradiance=1 Pmpp=8.7 %cutin=0.1 %cutout=0.1
New PVSystem.PV_59 phases=1 bus1=G2101GD1300_N292637_sec_19.1 kV=0.24 kVA=2.76 irradiance=1 Pmpp=2.3 %cutin=0.1 %cutout=0.1
New PVSystem.PV_60 phases=1 bus1=G2101GD9500_N292651_sec_10.1 kV=0.24 kVA=5.16 irradiance=1 Pmpp=4.3 %cutin=0.1 %cutout=0.1
New PVSystem.PV_61 phases=1 bus1=G2101HB3500_N292585_sec_11.1 kV=0.24 kVA=4.32 irradiance=1 Pmpp=3.6 %cutin=0.1 %cutout=0.1
New PVSystem.PV_62 phases=1 bus1=G2101HC2500_N292626_sec_3.1 kV=0.24 kVA=4.2 irradiance=1 Pmpp=3.5 %cutin=0.1 %cutout=0.1
New PVSystem.PV_63 phases=1 bus1=G2101HD1100_N292645_sec_7.1 kV=0.24 kVA=2.04 irradiance=1 Pmpp=1.7 %cutin=0.1 %cutout=0.1
New PVSystem.PV_64 phases=1 bus1=G2101IK4600_N300997_sec_1.3 kV=0.24 kVA=9.36 irradiance=1 Pmpp=7.8 %cutin=0.1 %cutout=0.1
New PVSystem.PV_65 phases=1 bus1=G2101IK4600_N300997_sec_3.3 kV=0.24 kVA=11.16 irradiance=1 Pmpp=9.3 %cutin=0.1 %cutout=0.1
New PVSystem.PV_66 phases=3 conn = delta bus1=G2101JA6700_N1321243_sec_9.1.2.3 kV=0.48 kVA=12 irradiance=1 Pmpp=10 %cutin=0.1 %cutout=0.1
New PVSystem.PV_67 phases=1 bus1=G2101JF1200_N292702_sec_2.1 kV=0.24 kVA=3.48 irradiance=1 Pmpp=2.9 %cutin=0.1 %cutout=0.1
New PVSystem.PV_68 phases=1 bus1=G2101JK1400_N300995_sec_4.3 kV=0.24 kVA=6.48 irradiance=1 Pmpp=5.4 %cutin=0.1 %cutout=0.1
New PVSystem.PV_69 phases=1 bus1=G2101KA0900_N300672_sec_16.1 kV=0.24 kVA=1.56 irradiance=1 Pmpp=1.3 %cutin=0.1 %cutout=0.1
New PVSystem.PV_70 phases=1 bus1=G2101KA2300_N300631_sec_16.1 kV=0.24 kVA=13.7195 irradiance=1 Pmpp=11.4329 %cutin=0.1 %cutout=0.1
New PVSystem.PV_71 phases=1 bus1=G2101KA3900_N300679_sec_18.1 kV=0.24 kVA=3.6 irradiance=1 Pmpp=3 %cutin=0.1 %cutout=0.1
New PVSystem.PV_72 phases=1 bus1=G2101OA5600_N300661_sec_7.1 kV=0.24 kVA=2.52 irradiance=1 Pmpp=2.1 %cutin=0.1 %cutout=0.1
New PVSystem.PV_73 phases=1 bus1=G2101PB2500_N300719_sec_2.3 kV=0.24 kVA=3.36 irradiance=1 Pmpp=2.8 %cutin=0.1 %cutout=0.1
New PVSystem.PV_74 phases=1 bus1=G2101QC7600_N300750_sec_5.3 kV=0.24 kVA=2.88 irradiance=1 Pmpp=2.4 %cutin=0.1 %cutout=0.1
New PVSystem.PV_75 phases=1 bus1=G2101RA8200_N312510_sec_4.3 kV=0.24 kVA=3 irradiance=1 Pmpp=2.5 %cutin=0.1 %cutout=0.1
New PVSystem.PV_76 phases=1 bus1=G2101SB2000_N312551_sec_6.1 kV=0.24 kVA=3.84 irradiance=1 Pmpp=3.2 %cutin=0.1 %cutout=0.1
New PVSystem.PV_77 phases=1 bus1=G2102AA7100_N284314_sec_1.1 kV=0.24 kVA=3.6013 irradiance=1 Pmpp=3.0011 %cutin=0.1 %cutout=0.1
New PVSystem.PV_78 phases=1 bus1=G2102CB9700_N284330_sec_5.1 kV=0.24 kVA=8.04 irradiance=1 Pmpp=6.7 %cutin=0.1 %cutout=0.1
New PVSystem.PV_79 phases=1 bus1=G2000RN2800_N274196_sec_3.3 kV=0.24 kVA=2.28 irradiance=1 Pmpp=1.9 %cutin=0.1 %cutout=0.1
New PVSystem.PV_80 phases=1 bus1=G2000SO9800_N274224_sec_2.3 kV=0.24 kVA=5.52 irradiance=1 Pmpp=4.6 %cutin=0.1 %cutout=0.1
New PVSystem.PV_81 phases=1 bus1=G2000SO9800_N274224_sec_3.3 kV=0.24 kVA=2.52 irradiance=1 Pmpp=2.1 %cutin=0.1 %cutout=0.1
New PVSystem.PV_82 phases=1 bus1=G2000TL5600_N283806_sec_1.2 kV=0.24 kVA=6.36 irradiance=1 Pmpp=5.3 %cutin=0.1 %cutout=0.1
New PVSystem.PV_83 phases=1 bus1=G2000UH9400_N283633_sec_1.3 kV=0.24 kVA=3.12 irradiance=1 Pmpp=2.6 %cutin=0.1 %cutout=0.1
New PVSystem.PV_84 phases=1 bus1=G2000WN0100_N283840_sec_1.2 kV=0.24 kVA=7.3324 irradiance=1 Pmpp=6.1104 %cutin=0.1 %cutout=0.1
New PVSystem.PV_85 phases=1 bus1=G2000XM1800_N283834_sec_3.3 kV=0.24 kVA=4.08 irradiance=1 Pmpp=3.4 %cutin=0.1 %cutout=0.1
New PVSystem.PV_86 phases=1 bus1=G2000XN2900_N283859_sec_2.3 kV=0.24 kVA=4.44 irradiance=1 Pmpp=3.7 %cutin=0.1 %cutout=0.1
New PVSystem.PV_87 phases=1 bus1=G2001VD6400_N283955_sec_5.3 kV=0.24 kVA=2.76 irradiance=1 Pmpp=2.3 %cutin=0.1 %cutout=0.1
New PVSystem.PV_88 phases=1 bus1=G2001WJ5200_N284200_sec_2.2 kV=0.24 kVA=13.1631 irradiance=1 Pmpp=10.9693 %cutin=0.1 %cutout=0.1
New PVSystem.PV_89 phases=1 bus1=G2001XC3700_N283971_sec_4.3 kV=0.24 kVA=6 irradiance=1 Pmpp=5 %cutin=0.1 %cutout=0.1
New PVSystem.PV_90 phases=1 bus1=G2100AL1800_N283798_sec_2.1 kV=0.24 kVA=3.8195 irradiance=1 Pmpp=3.1829 %cutin=0.1 %cutout=0.1
New PVSystem.PV_91 phases=1 bus1=G2100BJ0700_N283696_sec_7.2 kV=0.24 kVA=10.92 irradiance=1 Pmpp=9.1 %cutin=0.1 %cutout=0.1
New PVSystem.PV_92 phases=1 bus1=G2100BM6500_N283823_sec_2.1 kV=0.24 kVA=3.72 irradiance=1 Pmpp=3.1 %cutin=0.1 %cutout=0.1
New PVSystem.PV_93 phases=1 bus1=G2100BM9200_N283814_sec_2.1 kV=0.24 kVA=3 irradiance=1 Pmpp=2.5 %cutin=0.1 %cutout=0.1
New PVSystem.PV_94 phases=1 bus1=G2100CG0300_N283590_sec_5.3 kV=0.24 kVA=3.36 irradiance=1 Pmpp=2.8 %cutin=0.1 %cutout=0.1
New PVSystem.PV_95 phases=1 bus1=G2100CG0300_N283590_sec_16.3 kV=0.24 kVA=1.92 irradiance=1 Pmpp=1.6 %cutin=0.1 %cutout=0.1
New PVSystem.PV_96 phases=1 bus1=G2100CN4000_N283847_sec_9.3 kV=0.24 kVA=1.68 irradiance=1 Pmpp=1.4 %cutin=0.1 %cutout=0.1
New PVSystem.PV_97 phases=1 bus1=G2100CN4900_N283858_sec_4.3 kV=0.24 kVA=3.12 irradiance=1 Pmpp=2.6 %cutin=0.1 %cutout=0.1
New PVSystem.PV_98 phases=1 bus1=G2100DG6300_N283589_sec_3.3 kV=0.24 kVA=2.4 irradiance=1 Pmpp=2 %cutin=0.1 %cutout=0.1
New PVSystem.PV_99 phases=1 bus1=G2100DL9600_N1396879_sec_1.3 kV=0.24 kVA=2.3501 irradiance=1 Pmpp=1.9584 %cutin=0.1 %cutout=0.1
New PVSystem.PV_100 phases=1 bus1=G2100DN3000_N283838_sec_4.3 kV=0.24 kVA=1.68 irradiance=1 Pmpp=1.4 %cutin=0.1 %cutout=0.1
New PVSystem.PV_101 phases=1 bus1=G2100DO7000_N283865_sec_1.3 kV=0.24 kVA=0.96 irradiance=1 Pmpp=0.8 %cutin=0.1 %cutout=0.1
New PVSystem.PV_102 phases=3 conn = delta bus1=G2100EG9700_N292283_sec_3.1.2.3 kV=0.48 kVA=6.6 irradiance=1 Pmpp=5.5 %cutin=0.1 %cutout=0.1
New PVSystem.PV_103 phases=1 bus1=G2100EK1100_N292334_sec_3.2 kV=0.24 kVA=4.4942 irradiance=1 Pmpp=3.7451 %cutin=0.1 %cutout=0.1
New PVSystem.PV_104 phases=1 bus1=G2100EM1500_N292428_sec_2.3 kV=0.24 kVA=4.44 irradiance=1 Pmpp=3.7 %cutin=0.1 %cutout=0.1
New PVSystem.PV_105 phases=1 bus1=G2100EM2500_N292390_sec_3.2 kV=0.24 kVA=4.2 irradiance=1 Pmpp=3.5 %cutin=0.1 %cutout=0.1
New PVSystem.PV_106 phases=1 bus1=G2100EM2500_N292390_sec_12.2 kV=0.24 kVA=6.12 irradiance=1 Pmpp=5.1 %cutin=0.1 %cutout=0.1
New PVSystem.PV_107 phases=1 bus1=G2100EN2200_N292457_sec_23.3 kV=0.24 kVA=2.76 irradiance=1 Pmpp=2.3 %cutin=0.1 %cutout=0.1
New PVSystem.PV_108 phases=1 bus1=G2100EN8600_N292479_sec_16.3 kV=0.24 kVA=1.68 irradiance=1 Pmpp=1.4 %cutin=0.1 %cutout=0.1
New PVSystem.PV_109 phases=1 bus1=G2100EO2100_N292498_sec_1.3 kV=0.24 kVA=2.88 irradiance=1 Pmpp=2.4 %cutin=0.1 %cutout=0.1
New PVSystem.PV_110 phases=3 conn = delta bus1=G2100FE2600_N292234_sec_1.1.2.3 kV=0.48 kVA=14.64 irradiance=1 Pmpp=12.2 %cutin=0.1 %cutout=0.1
New PVSystem.PV_111 phases=1 bus1=G2100FI2200_N292320_sec_3.2 kV=0.24 kVA=6.36 irradiance=1 Pmpp=5.3 %cutin=0.1 %cutout=0.1
New PVSystem.PV_112 phases=1 bus1=G2100FK5800_N292373_sec_1.2 kV=0.24 kVA=11.7846 irradiance=1 Pmpp=9.8205 %cutin=0.1 %cutout=0.1
New PVSystem.PV_113 phases=1 bus1=G2100FO1700_N292522_sec_2.3 kV=0.24 kVA=1.44 irradiance=1 Pmpp=1.2 %cutin=0.1 %cutout=0.1
New PVSystem.PV_114 phases=3 conn = delta bus1=G2100GK5700_N292395_sec_1.1.2.3 kV=0.48 kVA=12 irradiance=1 Pmpp=10 %cutin=0.1 %cutout=0.1
New PVSystem.PV_115 phases=1 bus1=G2100GM9700_N292423_sec_24.3 kV=0.24 kVA=2.52 irradiance=1 Pmpp=2.1 %cutin=0.1 %cutout=0.1
New PVSystem.PV_116 phases=1 bus1=G2100HM3200_N292420_sec_20.3 kV=0.24 kVA=0.36 irradiance=1 Pmpp=0.3 %cutin=0.1 %cutout=0.1
New PVSystem.PV_117 phases=1 bus1=G2100HN5600_N292453_sec_5.3 kV=0.24 kVA=3.36 irradiance=1 Pmpp=2.8 %cutin=0.1 %cutout=0.1
New PVSystem.PV_118 phases=1 bus1=G2100HN5600_N292453_sec_55.3 kV=0.24 kVA=3.12 irradiance=1 Pmpp=2.6 %cutin=0.1 %cutout=0.1
New PVSystem.PV_119 phases=1 bus1=G2100IN2700_N292475_sec_23.3 kV=0.24 kVA=2.88 irradiance=1 Pmpp=2.4 %cutin=0.1 %cutout=0.1
New PVSystem.PV_120 phases=1 bus1=G2100IN7700_N292438_sec_25.3 kV=0.24 kVA=1.44 irradiance=1 Pmpp=1.2 %cutin=0.1 %cutout=0.1
New PVSystem.PV_121 phases=1 bus1=G2100ON7300_N300541_sec_3.1 kV=0.24 kVA=7.32 irradiance=1 Pmpp=6.1 %cutin=0.1 %cutout=0.1
New PVSystem.PV_122 phases=1 bus1=G2100QM7500_N300522_sec_4.3 kV=0.24 kVA=4.08 irradiance=1 Pmpp=3.4 %cutin=0.1 %cutout=0.1
New PVSystem.PV_123 phases=1 bus1=G2100RN7000_N300533_sec_2.3 kV=0.24 kVA=2.76 irradiance=1 Pmpp=2.3 %cutin=0.1 %cutout=0.1
New PVSystem.PV_124 phases=1 bus1=G2100RN9500_N312395_sec_5.3 kV=0.24 kVA=4.32 irradiance=1 Pmpp=3.6 %cutin=0.1 %cutout=0.1
New PVSystem.PV_125 phases=1 bus1=G2100RO0400_N300576_sec_1.3 kV=0.24 kVA=3.36 irradiance=1 Pmpp=2.8 %cutin=0.1 %cutout=0.1
New PVSystem.PV_126 phases=1 bus1=G2100RO0400_N300576_sec_7.3 kV=0.24 kVA=3 irradiance=1 Pmpp=2.5 %cutin=0.1 %cutout=0.1
New PVSystem.PV_127 phases=1 bus1=G2101AL8800_N284268_sec_3.1 kV=0.24 kVA=6.1104 irradiance=1 Pmpp=5.092 %cutin=0.1 %cutout=0.1
New PVSystem.PV_128 phases=1 bus1=G2101BC6900_N283995_sec_3.2 kV=0.24 kVA=11.76 irradiance=1 Pmpp=9.8 %cutin=0.1 %cutout=0.1
New PVSystem.PV_129 phases=1 bus1=G2101BC7200_N283931_sec_14.1 kV=0.24 kVA=7.32 irradiance=1 Pmpp=6.1 %cutin=0.1 %cutout=0.1
New PVSystem.PV_130 phases=1 bus1=G2101BM2600_N284287_sec_2.1 kV=0.24 kVA=5.52 irradiance=1 Pmpp=4.6 %cutin=0.1 %cutout=0.1
New PVSystem.PV_131 phases=1 bus1=G2101BM6600_N284296_sec_1.1 kV=0.24 kVA=7.92 irradiance=1 Pmpp=6.6 %cutin=0.1 %cutout=0.1
New PVSystem.PV_132 phases=1 bus1=G2101DC0100_N283946_sec_2.1 kV=0.24 kVA=7.8 irradiance=1 Pmpp=6.5 %cutin=0.1 %cutout=0.1
New PVSystem.PV_133 phases=1 bus1=G2101DE3600_N284078_sec_2.2 kV=0.24 kVA=12.12 irradiance=1 Pmpp=10.1 %cutin=0.1 %cutout=0.1
New PVSystem.PV_134 phases=1 bus1=G2101EM0500_N292824_sec_1.2 kV=0.24 kVA=5.7875 irradiance=1 Pmpp=4.8229 %cutin=0.1 %cutout=0.1
New PVSystem.PV_135 phases=1 bus1=G2101EO2200_N292846_sec_1.1 kV=0.24 kVA=7.32 irradiance=1 Pmpp=6.1 %cutin=0.1 %cutout=0.1
New PVSystem.PV_136 phases=1 bus1=G2101FC8400_N292612_sec_8.2 kV=0.24 kVA=3 irradiance=1 Pmpp=2.5 %cutin=0.1 %cutout=0.1
New PVSystem.PV_137 phases=1 bus1=G2101FC8400_N292612_sec_15.2 kV=0.24 kVA=5.64 irradiance=1 Pmpp=4.7 %cutin=0.1 %cutout=0.1
New PVSystem.PV_138 phases=1 bus1=G2101GD1300_N292637_sec_15.1 kV=0.24 kVA=3 irradiance=1 Pmpp=2.5 %cutin=0.1 %cutout=0.1
New PVSystem.PV_139 phases=1 bus1=G2101HB3500_N292585_sec_9.1 kV=0.24 kVA=4.56 irradiance=1 Pmpp=3.8 %cutin=0.1 %cutout=0.1
New PVSystem.PV_140 phases=1 bus1=G2101HD1100_N292645_sec_17.1 kV=0.24 kVA=2.4 irradiance=1 Pmpp=2 %cutin=0.1 %cutout=0.1
New PVSystem.PV_141 phases=1 bus1=G2101HD3500_N292652_sec_11.1 kV=0.24 kVA=2.4 irradiance=1 Pmpp=2 %cutin=0.1 %cutout=0.1
New PVSystem.PV_142 phases=1 bus1=G2101HG3400_N1406188_sec_9.1 kV=0.24 kVA=0.96 irradiance=1 Pmpp=0.8 %cutin=0.1 %cutout=0.1
New PVSystem.PV_143 phases=1 bus1=G2101HI2400_N292772_sec_1.2 kV=0.24 kVA=13.8 irradiance=1 Pmpp=11.5 %cutin=0.1 %cutout=0.1
New PVSystem.PV_144 phases=1 bus1=G2101HN5200_N292851_sec_2.2 kV=0.24 kVA=9.5135 irradiance=1 Pmpp=7.9279 %cutin=0.1 %cutout=0.1
New PVSystem.PV_145 phases=1 bus1=G2101KA0900_N300672_sec_17.1 kV=0.24 kVA=3.7217 irradiance=1 Pmpp=3.1014 %cutin=0.1 %cutout=0.1
New PVSystem.PV_146 phases=1 bus1=G2101KA2300_N300631_sec_17.1 kV=0.24 kVA=3.6 irradiance=1 Pmpp=3 %cutin=0.1 %cutout=0.1
New PVSystem.PV_147 phases=1 bus1=G2101KA6200_N300623_sec_19.1 kV=0.24 kVA=3.12 irradiance=1 Pmpp=2.6 %cutin=0.1 %cutout=0.1
New PVSystem.PV_148 phases=1 bus1=G2101OB2900_N300670_sec_4.3 kV=0.24 kVA=2.04 irradiance=1 Pmpp=1.7 %cutin=0.1 %cutout=0.1
New PVSystem.PV_149 phases=1 bus1=G2101PA3400_N300633_sec_3.1 kV=0.24 kVA=4.44 irradiance=1 Pmpp=3.7 %cutin=0.1 %cutout=0.1
New PVSystem.PV_150 phases=1 bus1=G2101PB2500_N300719_sec_4.3 kV=0.24 kVA=1.56 irradiance=1 Pmpp=1.3 %cutin=0.1 %cutout=0.1
New PVSystem.PV_151 phases=1 bus1=G2101PB5100_N300681_sec_6.1 kV=0.24 kVA=4.44 irradiance=1 Pmpp=3.7 %cutin=0.1 %cutout=0.1
New PVSystem.PV_152 phases=1 bus1=G2101RA8200_N312510_sec_1.3 kV=0.24 kVA=3 irradiance=1 Pmpp=2.5 %cutin=0.1 %cutout=0.1
New PVSystem.PV_153 phases=1 bus1=G2101SA6800_N312536_sec_9.2 kV=0.24 kVA=11.16 irradiance=1 Pmpp=9.3 %cutin=0.1 %cutout=0.1
New PVSystem.PV_154 phases=1 bus1=G2101SB6500_N312568_sec_6.1 kV=0.24 kVA=4.44 irradiance=1 Pmpp=3.7 %cutin=0.1 %cutout=0.1
New PVSystem.PV_155 phases=1 bus1=G2101UB2800_N312558_sec_6.2 kV=0.24 kVA=6.24 irradiance=1 Pmpp=5.2 %cutin=0.1 %cutout=0.1
New PVSystem.PV_156 phases=1 bus1=G2000SK7800_N274150_sec_3.2 kV=0.24 kVA=6 irradiance=1 Pmpp=5 %cutin=0.1 %cutout=0.1
New PVSystem.PV_157 phases=1 bus1=G2000SO9800_N274224_sec_1.3 kV=0.24 kVA=6.96 irradiance=1 Pmpp=5.8 %cutin=0.1 %cutout=0.1
New PVSystem.PV_158 phases=1 bus1=G2000UM7300_N283821_sec_2.2 kV=0.24 kVA=8.64 irradiance=1 Pmpp=7.2 %cutin=0.1 %cutout=0.1
New PVSystem.PV_159 phases=1 bus1=G2000VM6800_N283833_sec_2.2 kV=0.24 kVA=10.56 irradiance=1 Pmpp=8.8 %cutin=0.1 %cutout=0.1
New PVSystem.PV_160 phases=1 bus1=G2000YM2700_N283830_sec_1.1 kV=0.24 kVA=4.2 irradiance=1 Pmpp=3.5 %cutin=0.1 %cutout=0.1
New PVSystem.PV_161 phases=1 bus1=G2001RB7800_N274248_sec_5.3 kV=0.24 kVA=5.64 irradiance=1 Pmpp=4.7 %cutin=0.1 %cutout=0.1
New PVSystem.PV_162 phases=1 bus1=G2001RI6300_N1347089_sec_4.1 kV=0.24 kVA=10.2 irradiance=1 Pmpp=8.5 %cutin=0.1 %cutout=0.1
New PVSystem.PV_163 phases=1 bus1=G2001SL1400_N274531_sec_3.2 kV=0.24 kVA=8.28 irradiance=1 Pmpp=6.9 %cutin=0.1 %cutout=0.1
New PVSystem.PV_164 phases=1 bus1=G2001UB4400_N283904_sec_6.3 kV=0.24 kVA=3.12 irradiance=1 Pmpp=2.6 %cutin=0.1 %cutout=0.1
New PVSystem.PV_165 phases=1 bus1=G2001VK9500_N284225_sec_2.2 kV=0.24 kVA=13.68 irradiance=1 Pmpp=11.4 %cutin=0.1 %cutout=0.1
New PVSystem.PV_166 phases=1 bus1=G2001WB3100_N283924_sec_1.3 kV=0.24 kVA=6 irradiance=1 Pmpp=5 %cutin=0.1 %cutout=0.1
New PVSystem.PV_167 phases=1 bus1=G2001XB6700_N283943_sec_3.3 kV=0.24 kVA=3.36 irradiance=1 Pmpp=2.8 %cutin=0.1 %cutout=0.1
New PVSystem.PV_168 phases=1 bus1=G2001XE9500_N284003_sec_3.3 kV=0.24 kVA=3.72 irradiance=1 Pmpp=3.1 %cutin=0.1 %cutout=0.1
New PVSystem.PV_169 phases=1 bus1=G2001XG1800_N284156_sec_1.3 kV=0.24 kVA=5.76 irradiance=1 Pmpp=4.8 %cutin=0.1 %cutout=0.1
New PVSystem.PV_170 phases=1 bus1=G2001XH0700_N284168_sec_4.3 kV=0.24 kVA=5.04 irradiance=1 Pmpp=4.2 %cutin=0.1 %cutout=0.1
New PVSystem.PV_171 phases=1 bus1=G2001XM3800_N284277_sec_1.1 kV=0.24 kVA=9.84 irradiance=1 Pmpp=8.2 %cutin=0.1 %cutout=0.1
New PVSystem.PV_172 phases=1 bus1=G2001YA0800_N283921_sec_4.3 kV=0.24 kVA=4.2 irradiance=1 Pmpp=3.5 %cutin=0.1 %cutout=0.1
New PVSystem.PV_173 phases=1 bus1=G2100AD9900_N283564_sec_6.3 kV=0.24 kVA=3.36 irradiance=1 Pmpp=2.8 %cutin=0.1 %cutout=0.1
New PVSystem.PV_174 phases=1 bus1=G2100AE9900_N283556_sec_3.3 kV=0.24 kVA=2.88 irradiance=1 Pmpp=2.4 %cutin=0.1 %cutout=0.1
New PVSystem.PV_175 phases=1 bus1=G2100AK1200_N283742_sec_3.2 kV=0.24 kVA=10.2 irradiance=1 Pmpp=8.5 %cutin=0.1 %cutout=0.1
New PVSystem.PV_176 phases=1 bus1=G2100AM6700_N283835_sec_2.1 kV=0.24 kVA=9.24 irradiance=1 Pmpp=7.7 %cutin=0.1 %cutout=0.1
New PVSystem.PV_177 phases=1 bus1=G2100AM9800_N283829_sec_1.1 kV=0.24 kVA=3.12 irradiance=1 Pmpp=2.6 %cutin=0.1 %cutout=0.1
New PVSystem.PV_178 phases=1 bus1=G2100BH3900_N283665_sec_3.3 kV=0.24 kVA=2.88 irradiance=1 Pmpp=2.4 %cutin=0.1 %cutout=0.1
New PVSystem.PV_179 phases=1 bus1=G2100BJ0700_N283696_sec_3.2 kV=0.24 kVA=6.6 irradiance=1 Pmpp=5.5 %cutin=0.1 %cutout=0.1
New PVSystem.PV_180 phases=1 bus1=G2100BJ5900_N283761_sec_4.2 kV=0.24 kVA=6.0635 irradiance=1 Pmpp=5.0529 %cutin=0.1 %cutout=0.1
New PVSystem.PV_181 phases=1 bus1=G2100BJ7400_N283728_sec_8.2 kV=0.24 kVA=6.84 irradiance=1 Pmpp=5.7 %cutin=0.1 %cutout=0.1
New PVSystem.PV_182 phases=1 bus1=G2100BL0800_N283800_sec_1.1 kV=0.24 kVA=0.36 irradiance=1 Pmpp=0.3 %cutin=0.1 %cutout=0.1
New PVSystem.PV_183 phases=1 bus1=G2100BL8300_N283778_sec_1.1 kV=0.24 kVA=7.08 irradiance=1 Pmpp=5.9 %cutin=0.1 %cutout=0.1
New PVSystem.PV_184 phases=1 bus1=G2100CH7400_N283632_sec_17.3 kV=0.24 kVA=3.24 irradiance=1 Pmpp=2.7 %cutin=0.1 %cutout=0.1
New PVSystem.PV_185 phases=1 bus1=G2100DJ0100_N283721_sec_2.2 kV=0.24 kVA=6.84 irradiance=1 Pmpp=5.7 %cutin=0.1 %cutout=0.1
New PVSystem.PV_186 phases=1 bus1=G2100DL9600_N1396879_sec_3.3 kV=0.24 kVA=1.92 irradiance=1 Pmpp=1.6 %cutin=0.1 %cutout=0.1
New PVSystem.PV_187 phases=1 bus1=G2100DM6300_N283816_sec_1.3 kV=0.24 kVA=2.64 irradiance=1 Pmpp=2.2 %cutin=0.1 %cutout=0.1
New PVSystem.PV_188 phases=1 bus1=G2100DN4800_N283861_sec_41.3 kV=0.24 kVA=2.04 irradiance=1 Pmpp=1.7 %cutin=0.1 %cutout=0.1
New PVSystem.PV_189 phases=1 bus1=G2100EO2100_N292498_sec_12.3 kV=0.24 kVA=2.16 irradiance=1 Pmpp=1.8 %cutin=0.1 %cutout=0.1
New PVSystem.PV_190 phases=3 conn = delta bus1=G2100FE2600_N292234_sec_10.1.2.3 kV=0.48 kVA=1.32 irradiance=1 Pmpp=1.1 %cutin=0.1 %cutout=0.1
New PVSystem.PV_191 phases=3 conn = delta bus1=G2100FG1700_N292304_sec_9.1.2.3 kV=0.48 kVA=12.36 irradiance=1 Pmpp=10.3 %cutin=0.1 %cutout=0.1
New PVSystem.PV_192 phases=3 conn = delta bus1=G2100FJ3800_N292380_sec_1.1.2.3 kV=0.48 kVA=6.84 irradiance=1 Pmpp=5.7 %cutin=0.1 %cutout=0.1
New PVSystem.PV_193 phases=3 conn = delta bus1=G2100GM5300_N292446_sec_4.1.2.3 kV=0.48 kVA=9.72 irradiance=1 Pmpp=8.1 %cutin=0.1 %cutout=0.1
New PVSystem.PV_194 phases=1 bus1=G2100GN0400_N292471_sec_14.1 kV=0.24 kVA=2.88 irradiance=1 Pmpp=2.4 %cutin=0.1 %cutout=0.1
New PVSystem.PV_195 phases=1 bus1=G2100GO6100_N292504_sec_2.1 kV=0.24 kVA=2.76 irradiance=1 Pmpp=2.3 %cutin=0.1 %cutout=0.1
New PVSystem.PV_196 phases=3 conn = delta bus1=G2100HI8200_N292329_sec_5.1.2.3 kV=0.48 kVA=132.6 irradiance=1 Pmpp=110.5 %cutin=0.1 %cutout=0.1
New PVSystem.PV_197 phases=1 bus1=G2100HM9900_N292433_sec_20.3 kV=0.24 kVA=1.08 irradiance=1 Pmpp=0.9 %cutin=0.1 %cutout=0.1
New PVSystem.PV_198 phases=1 bus1=G2100HN5600_N292453_sec_2.3 kV=0.24 kVA=2.28 irradiance=1 Pmpp=1.9 %cutin=0.1 %cutout=0.1
New PVSystem.PV_199 phases=1 bus1=G2100HN5600_N292453_sec_24.3 kV=0.24 kVA=4.2 irradiance=1 Pmpp=3.5 %cutin=0.1 %cutout=0.1
New PVSystem.PV_200 phases=1 bus1=G2100IN7700_N292438_sec_2.3 kV=0.24 kVA=1.2 irradiance=1 Pmpp=1 %cutin=0.1 %cutout=0.1
...
